/*--------------------------------*- C++ -*----------------------------------*\
  =========                 |
  \\      /  F ield         | OpenFOAM: The Open Source CFD Toolbox
   \\    /   O peration     | Website:  https://openfoam.org
    \\  /    A nd           | Version:  12
     \\/     M anipulation  |
\*---------------------------------------------------------------------------*/
FoamFile
{
    format      ascii;
    class       volScalarField;
    location    "0";
    object      alphat;
}
// * * * * * * * * * * * * * * * * * * * * * * * * * * * * * * * * * * * * * //

dimensions      [1 -1 -1 0 0 0 0];

internalField   uniform 0;

boundaryField
{
    DepotCelling12
    {
        type            compressible::alphatWallFunction;
        value           uniform 0;
    }
    DepotWall12
    {
        type            compressible::alphatWallFunction;
        value           uniform 0;
    }
    DepotFloor12
    {
        type            compressible::alphatWallFunction;
        value           uniform 0;
    }
    DepotPanel12
    {
        type            compressible::alphatWallFunction;
        value           uniform 0;
    }



}


// ************************************************************************* //
