/*--------------------------------*- C++ -*----------------------------------*\
  =========                 |
  \\      /  F ield         | OpenFOAM: The Open Source CFD Toolbox
   \\    /   O peration     | Website:  https://openfoam.org
    \\  /    A nd           | Version:  12
     \\/     M anipulation  |
\*---------------------------------------------------------------------------*/
FoamFile
{
    format      ascii;
    class       volScalarField;
    object      G;
}
// * * * * * * * * * * * * * * * * * * * * * * * * * * * * * * * * * * * * * //

dimensions      [1 0 -3 0 0 0 0];

internalField   uniform 0;

boundaryField
{
    DepotCelling12  
    {
        type            MarshakRadiation;
        emissivityMode  lookup;
        emissivity      uniform 1.0;
        value           uniform 0;
    }
    DepotWall12
    {
        type            MarshakRadiation;
        emissivityMode  lookup;
        emissivity      uniform 1.0;
        value           uniform 0;
    }
    DepotFloor12
    {
        type            MarshakRadiation;
        emissivityMode  lookup;
        emissivity      uniform 1.0;
        value           uniform 0;
    }
    DepotPanel12
    {
        type            MarshakRadiation;
        emissivityMode  lookup;
        emissivity      uniform 1.0;
        value           uniform 0;
    }
}

// ************************************************************************* //
