/*--------------------------------*- C++ -*----------------------------------*\
  =========                 |
  \\      /  F ield         | OpenFOAM: The Open Source CFD Toolbox
   \\    /   O peration     | Website:  https://openfoam.org
    \\  /    A nd           | Version:  12
     \\/     M anipulation  |
\*---------------------------------------------------------------------------*/
FoamFile
{
    format      ascii;
    class       dictionary;
    location    "constant";
    object      radiationProperties;
}
// * * * * * * * * * * * * * * * * * * * * * * * * * * * * * * * * * * * * * //

radiationModel  P1;

// Number of flow iterations per radiation iteration
solverFreq 1;

absorptionEmissionModel constant;

constantCoeffs
{
    absorptivity    0.85;  // EcoStrip XP powder coated steel
    emissivity      0.85;  // EcoStrip XP powder coated steel
    E               0;
}

scatterModel    none;

sootModel       none;


// ************************************************************************* //
