/*--------------------------------*- C++ -*----------------------------------*\
  =========                 |
  \\      /  F ield         | OpenFOAM: The Open Source CFD Toolbox
   \\    /   O peration     | Website:  https://openfoam.org
    \\  /    A nd           | Version:  12
     \\/     M anipulation  |
\*---------------------------------------------------------------------------*/
FoamFile
{
    format      ascii;
    class       dictionary;
    location    "system";
    object      controlDict;
}
// * * * * * * * * * * * * * * * * * * * * * * * * * * * * * * * * * * * * * //

application     foamRun;

solver          fluid;

startFrom       latestTime;

startTime       0;

stopAt          endTime;
endTime         72000; // 1 hour for CHT simulation

adjustTimeStep  yes;

maxCo           0.9;

maxDeltaT       1.0;

deltaT          1;

writeControl    runTime;

writeInterval   600;  // every 1 hour

purgeWrite      0;

writeFormat     ascii;

writePrecision  6;

writeCompression off;

timeFormat      general;

timePrecision   6;

runTimeModifiable true; 

functions
{
}
// ************************************************************************* //
