/*--------------------------------*- C++ -*----------------------------------*\
  =========                 |
  \\      /  F ield         | OpenFOAM: The Open Source CFD Toolbox
   \\    /   O peration     | Website:  https://openfoam.org
    \\  /    A nd           | Version:  12
     \\/     M anipulation  |
\*---------------------------------------------------------------------------*/
FoamFile
{
    format      ascii;
    class       extendedFeatureEdgeMesh;
    location    "constant/extendedFeatureEdgeMesh";
    object      DepotWindow.extendedFeatureEdgeMesh;
}
// * * * * * * * * * * * * * * * * * * * * * * * * * * * * * * * * * * * * * //

// points
8((-32.1182 -18.8021 2.56944) (32.118 -18.8021 2.56944) (32.118 -18.8021 -2.98612) (-32.1182 -18.8021 -2.98612) (32.118 18.8021 2.43055) (32.118 18.8021 -3.12501) (-32.1182 18.8021 -2.84723) (-32.1182 18.8021 2.29167))
// edges
8((0 1) (1 2) (2 3) (3 0) (4 5) (5 6) (6 7) (7 4))
// concaveStart mixedStart nonFeatureStart
0 0 0
// internalStart flatStart openStart multipleStart
0 0 0 8
// normals
4{(-0 1 0)}
// normal volume types

4
(
0
0
0
0
)

// normalDirections

8
(
1(1)
1(1)
1(1)
1(1)
1(1)
1(1)
1(1)
1(1)
)

// edgeNormals

8
(
1(0)
1(0)
1(1)
1(1)
1(2)
1(2)
1(3)
1(3)
)

// featurePointNormals
0()
// featurePointEdges
0()
// regionEdges
8(0 1 2 3 4 5 6 7)


// ************************************************************************* //
