/*--------------------------------*- C++ -*----------------------------------*\
  =========                 |
  \\      /  F ield         | OpenFOAM: The Open Source CFD Toolbox
   \\    /   O peration     | Website:  https://openfoam.org
    \\  /    A nd           | Version:  12
     \\/     M anipulation  |
\*---------------------------------------------------------------------------*/
FoamFile
{
    format      ascii;
    class       volScalarField;
    location    "0";
    object      nut;
}
// * * * * * * * * * * * * * * * * * * * * * * * * * * * * * * * * * * * * * //

dimensions      [0 2 -1 0 0 0 0];

internalField   uniform 0;

boundaryField
{
    DepotCelling
    {
        type            nutkWallFunction;
        value           uniform 0;
    }
    DepotWall
    {
        type            nutkWallFunction;
        value           uniform 0;
    }
    DepotFloor
    {
        type            nutkWallFunction;
        value           uniform 0;
    }
    DepotPanel12
    {
        type            nutkWallFunction;
        value           uniform 0;
    }
    DepotWindow
    {
        type            nutkWallFunction;
        value           uniform 0;
    }
    DepotShutter
    {
        type            nutkWallFunction;
        value           uniform 0;
    }

}


// ************************************************************************* //
