/*--------------------------------*- C++ -*----------------------------------*\
  =========                 |
  \\      /  F ield         | OpenFOAM: The Open Source CFD Toolbox
   \\    /   O peration     | Website:  https://openfoam.org
    \\  /    A nd           | Version:  12
     \\/     M anipulation  |
\*---------------------------------------------------------------------------*/
FoamFile
{
    format      ascii;
    class       extendedFeatureEdgeMesh;
    location    "constant/extendedFeatureEdgeMesh";
    object      DepotWall.extendedFeatureEdgeMesh;
}
// * * * * * * * * * * * * * * * * * * * * * * * * * * * * * * * * * * * * * //

// points
8((-50 -19 4) (-50 19 4) (-50 19 -4) (-50 -19 -4) (50 19 4) (50 19 -4) (50 -19 4) (50 -19 -4))
// edges
8((0 1) (2 3) (1 4) (5 2) (4 6) (7 5) (6 0) (3 7))
// concaveStart mixedStart nonFeatureStart
0 0 0
// internalStart flatStart openStart multipleStart
0 0 0 8
// normals
8((-1 0 0) (-1 0 0) (0 1 0) (0 1 0) (1 0 -0) (1 0 0) (0 -1 0) (0 -1 0))
// normal volume types

8
(
0
0
0
0
0
0
0
0
)

// normalDirections

8
(
1(1)
1(1)
1(1)
1(1)
1(1)
1(1)
1(1)
1(1)
)

// edgeNormals

8
(
1(0)
1(1)
1(2)
1(3)
1(4)
1(5)
1(6)
1(7)
)

// featurePointNormals
0()
// featurePointEdges
0()
// regionEdges
8(0 1 2 3 4 5 6 7)


// ************************************************************************* //
