/*--------------------------------*- C++ -*----------------------------------*\
  =========                 |
  \\      /  F ield         | OpenFOAM: The Open Source CFD Toolbox
   \\    /   O peration     | Website:  https://openfoam.org
    \\  /    A nd           | Version:  12
     \\/     M anipulation  |
\*---------------------------------------------------------------------------*/
FoamFile
{
    format      ascii;
    class       extendedFeatureEdgeMesh;
    location    "constant/extendedFeatureEdgeMesh";
    object      DepotCelling12.extendedFeatureEdgeMesh;
}
// * * * * * * * * * * * * * * * * * * * * * * * * * * * * * * * * * * * * * //

// points

52
(
(-50 -19 4)
(50 -19 4)
(50 19 4)
(-50 19 4)
(-49 -15.75 2.9)
(-49 -14.25 2.9)
(-1 -14.25 2.9)
(-1 -15.75 2.9)
(-49 14.25 2.9)
(-49 15.75 2.9)
(-1 15.75 2.9)
(-1 14.25 2.9)
(-49 9.24999 2.9)
(-49 10.75 2.9)
(-1 10.75 2.9)
(-1 9.24999 2.9)
(-49 -10.75 2.9)
(-49 -9.24999 2.9)
(-1 -9.24999 2.9)
(-1 -10.75 2.9)
(-49 -4.75 2.9)
(-49 -3.25 2.9)
(-1 -3.25 2.9)
(-1 -4.75 2.9)
(-49 3.25 2.9)
(-49 4.75 2.9)
(-1 4.75 2.9)
(-1 3.25 2.9)
(1 3.25 2.9)
(1 4.75 2.9)
(49 4.75 2.9)
(49 3.25 2.9)
(1 -4.75 2.9)
(1 -3.25 2.9)
(49 -3.25 2.9)
(49 -4.75 2.9)
(1 -10.75 2.9)
(1 -9.25 2.9)
(49 -9.25 2.9)
(49 -10.75 2.9)
(1 9.25 2.9)
(1 10.75 2.9)
(49 10.75 2.9)
(49 9.25 2.9)
(1 14.25 2.9)
(1 15.75 2.9)
(49 15.75 2.9)
(49 14.25 2.9)
(1 -15.75 2.9)
(1 -14.25 2.9)
(49 -14.25 2.9)
(49 -15.75 2.9)
)

// edges

52
(
(0 1)
(2 3)
(1 2)
(3 0)
(4 5)
(5 6)
(6 7)
(7 4)
(8 9)
(9 10)
(10 11)
(11 8)
(12 13)
(13 14)
(14 15)
(15 12)
(16 17)
(17 18)
(18 19)
(19 16)
(20 21)
(21 22)
(22 23)
(23 20)
(24 25)
(25 26)
(26 27)
(27 24)
(28 29)
(29 30)
(30 31)
(31 28)
(32 33)
(33 34)
(34 35)
(35 32)
(36 37)
(37 38)
(38 39)
(39 36)
(40 41)
(41 42)
(42 43)
(43 40)
(44 45)
(45 46)
(46 47)
(47 44)
(48 49)
(49 50)
(50 51)
(51 48)
)

// concaveStart mixedStart nonFeatureStart
0 0 0
// internalStart flatStart openStart multipleStart
0 0 0 52
// normals

52
(
(0 0 1)
(0 -0 1)
(0 -0 1)
(0 0 1)
(1 0 0)
(0 -1 0)
(-1 0 0)
(0 1 0)
(1 0 0)
(0 -1 0)
(-1 0 0)
(0 1 0)
(1 0 0)
(0 -1 0)
(-1 0 0)
(0 1 0)
(1 0 0)
(0 -1 0)
(-1 0 0)
(0 1 0)
(1 0 0)
(0 -1 0)
(-1 0 0)
(0 1 0)
(1 0 0)
(0 -1 0)
(-1 0 0)
(0 1 0)
(1 0 0)
(0 -1 0)
(-1 0 0)
(0 1 0)
(1 0 0)
(0 -1 0)
(-1 0 0)
(0 1 0)
(1 0 0)
(0 -1 0)
(-1 0 0)
(0 1 0)
(1 0 0)
(0 -1 0)
(-1 0 0)
(0 1 0)
(1 0 0)
(0 -1 0)
(-1 0 0)
(0 1 0)
(1 0 0)
(0 -1 0)
(-1 0 0)
(0 1 0)
)

// normal volume types

52
(
0
0
0
0
0
0
0
0
0
0
0
0
0
0
0
0
0
0
0
0
0
0
0
0
0
0
0
0
0
0
0
0
0
0
0
0
0
0
0
0
0
0
0
0
0
0
0
0
0
0
0
0
)

// normalDirections

52
(
1(1)
1(1)
1(1)
1(1)
1(1)
1(1)
1(1)
1(1)
1(1)
1(1)
1(1)
1(1)
1(1)
1(1)
1(1)
1(1)
1(1)
1(1)
1(1)
1(1)
1(1)
1(1)
1(1)
1(1)
1(1)
1(1)
1(1)
1(1)
1(1)
1(1)
1(1)
1(1)
1(1)
1(1)
1(1)
1(1)
1(1)
1(1)
1(1)
1(1)
1(1)
1(1)
1(1)
1(1)
1(1)
1(1)
1(1)
1(1)
1(1)
1(1)
1(1)
1(1)
)

// edgeNormals

52
(
1(0)
1(1)
1(2)
1(3)
1(4)
1(5)
1(6)
1(7)
1(8)
1(9)
1(10)
1(11)
1(12)
1(13)
1(14)
1(15)
1(16)
1(17)
1(18)
1(19)
1(20)
1(21)
1(22)
1(23)
1(24)
1(25)
1(26)
1(27)
1(28)
1(29)
1(30)
1(31)
1(32)
1(33)
1(34)
1(35)
1(36)
1(37)
1(38)
1(39)
1(40)
1(41)
1(42)
1(43)
1(44)
1(45)
1(46)
1(47)
1(48)
1(49)
1(50)
1(51)
)

// featurePointNormals
0()
// featurePointEdges
0()
// regionEdges

52
(
0
1
2
3
4
5
6
7
8
9
10
11
12
13
14
15
16
17
18
19
20
21
22
23
24
25
26
27
28
29
30
31
32
33
34
35
36
37
38
39
40
41
42
43
44
45
46
47
48
49
50
51
)



// ************************************************************************* //
