/*--------------------------------*- C++ -*----------------------------------*\
  =========                 |
  \\      /  F ield         | OpenFOAM: The Open Source CFD Toolbox
   \\    /   O peration     | Website:  https://openfoam.org
    \\  /    A nd           | Version:  12
     \\/     M anipulation  |
\*---------------------------------------------------------------------------*/
FoamFile
{
    format      ascii;
    class       extendedFeatureEdgeMesh;
    location    "constant/extendedFeatureEdgeMesh";
    object      Depot.extendedFeatureEdgeMesh;
}
// * * * * * * * * * * * * * * * * * * * * * * * * * * * * * * * * * * * * * //

// points

24
(
(-49 -15.75 2.9)
(-49 -14.25 2.9)
(-1 -14.25 2.9)
(-1 -15.75 2.9)
(-49 -10.75 2.9)
(-49 -9.25 2.9)
(-1 -9.25 2.9)
(-1 -10.75 2.9)
(-49 14.25 2.9)
(-49 15.75 2.9)
(-1 15.75 2.9)
(-1 14.25 2.9)
(-49 9.25 2.9)
(-49 10.75 2.9)
(-1 10.75 2.9)
(-1 9.25 2.9)
(-49 -4.75 2.9)
(-49 -3.25 2.9)
(-1 -3.25 2.9)
(-1 -4.75 2.9)
(-49 3.25 2.9)
(-49 4.75 2.9)
(-1 4.75 2.9)
(-1 3.25 2.9)
)

// edges

24
(
(0 1)
(1 2)
(2 3)
(3 0)
(4 5)
(5 6)
(6 7)
(7 4)
(8 9)
(9 10)
(10 11)
(11 8)
(12 13)
(13 14)
(14 15)
(15 12)
(16 17)
(17 18)
(18 19)
(19 16)
(20 21)
(21 22)
(22 23)
(23 20)
)

// concaveStart mixedStart nonFeatureStart
0 0 0
// internalStart flatStart openStart multipleStart
0 0 0 24
// normals

24
(
(1 0 0)
(0 -1 0)
(-1 0 0)
(0 1 0)
(1 0 0)
(0 -1 0)
(-1 0 0)
(0 1 0)
(1 0 0)
(0 -1 0)
(-1 0 0)
(0 1 0)
(1 0 0)
(0 -1 0)
(-1 0 0)
(0 1 0)
(1 0 0)
(0 -1 0)
(-1 0 0)
(0 1 0)
(1 0 0)
(0 -1 0)
(-1 0 0)
(0 1 0)
)

// normal volume types

24
(
0
0
0
0
0
0
0
0
0
0
0
0
0
0
0
0
0
0
0
0
0
0
0
0
)

// normalDirections

24
(
1(1)
1(1)
1(1)
1(1)
1(1)
1(1)
1(1)
1(1)
1(1)
1(1)
1(1)
1(1)
1(1)
1(1)
1(1)
1(1)
1(1)
1(1)
1(1)
1(1)
1(1)
1(1)
1(1)
1(1)
)

// edgeNormals

24
(
1(0)
1(1)
1(2)
1(3)
1(4)
1(5)
1(6)
1(7)
1(8)
1(9)
1(10)
1(11)
1(12)
1(13)
1(14)
1(15)
1(16)
1(17)
1(18)
1(19)
1(20)
1(21)
1(22)
1(23)
)

// featurePointNormals
0()
// featurePointEdges
0()
// regionEdges

24
(
0
1
2
3
4
5
6
7
8
9
10
11
12
13
14
15
16
17
18
19
20
21
22
23
)



// ************************************************************************* //
