/*--------------------------------*- C++ -*----------------------------------*\
  =========                 |
  \\      /  F ield         | OpenFOAM: The Open Source CFD Toolbox
   \\    /   O peration     | Website:  https://openfoam.org
    \\  /    A nd           | Version:  12
     \\/     M anipulation  |
\*---------------------------------------------------------------------------*/
FoamFile
{
    format      ascii;
    class       extendedFeatureEdgeMesh;
    location    "constant/extendedFeatureEdgeMesh";
    object      DepotWall12.extendedFeatureEdgeMesh;
}
// * * * * * * * * * * * * * * * * * * * * * * * * * * * * * * * * * * * * * //

// points

12
(
(50 19 -4)
(50 19 4)
(50 -19 4)
(50 -19 -4)
(-50 -19 4)
(-50 -19 -4)
(-50 -19 -4)
(-50 -19 4)
(-50 19 4)
(-50 19 -4)
(50 19 4)
(50 19 -4)
)

// edges

12
(
(0 1)
(1 2)
(3 0)
(2 4)
(4 5)
(5 3)
(6 7)
(7 8)
(9 6)
(8 10)
(10 11)
(11 9)
)

// concaveStart mixedStart nonFeatureStart
0 0 0
// internalStart flatStart openStart multipleStart
0 0 0 12
// normals
8((1 0 -0) (1 0 0) (0 -1 0) (0 -1 0) (-1 0 0) (-1 0 0) (0 1 0) (0 1 0))
// normal volume types

8
(
0
0
0
0
0
0
0
0
)

// normalDirections

12
(
1(1)
1(1)
1(1)
1(1)
1(1)
1(1)
1(1)
1(1)
1(1)
1(1)
1(1)
1(1)
)

// edgeNormals

12
(
1(0)
1(0)
1(1)
1(2)
1(3)
1(3)
1(4)
1(4)
1(5)
1(6)
1(7)
1(7)
)

// featurePointNormals
0()
// featurePointEdges
0()
// regionEdges

12
(
0
1
2
3
4
5
6
7
8
9
10
11
)



// ************************************************************************* //
