/*--------------------------------*- C++ -*----------------------------------*\
  =========                 |
  \\      /  F ield         | OpenFOAM: The Open Source CFD Toolbox
   \\    /   O peration     | Website:  https://openfoam.org
    \\  /    A nd           | Version:  12
     \\/     M anipulation  |
\*---------------------------------------------------------------------------*/
FoamFile
{
    format      ascii;
    class       extendedFeatureEdgeMesh;
    location    "constant/extendedFeatureEdgeMesh";
    object      Dpanel6.extendedFeatureEdgeMesh;
}
// * * * * * * * * * * * * * * * * * * * * * * * * * * * * * * * * * * * * * //

// points
4((-49 -14.25 2.9) (-49 -15.75 2.9) (-1 -15.75 2.9) (-1 -14.25 2.9))
// edges
4((0 1) (1 2) (2 3) (3 0))
// concaveStart mixedStart nonFeatureStart
0 0 0
// internalStart flatStart openStart multipleStart
0 0 0 4
// normals
2{(0 0 1)}
// normal volume types

2
(
0
0
)

// normalDirections

4
(
1(1)
1(1)
1(1)
1(1)
)

// edgeNormals

4
(
1(0)
1(0)
1(1)
1(1)
)

// featurePointNormals
0()
// featurePointEdges
0()
// regionEdges
4(0 1 2 3)


// ************************************************************************* //
